Version 4
SHEET 1 1796 740
WIRE 592 -128 560 -128
WIRE 736 -128 656 -128
WIRE 1472 -16 1312 -16
WIRE 560 0 560 -128
WIRE 592 0 560 0
WIRE 736 0 736 -128
WIRE 736 0 672 0
WIRE 976 0 896 0
WIRE 976 32 976 0
WIRE 1312 48 1312 -16
WIRE 1360 48 1312 48
WIRE 896 64 896 0
WIRE 1472 64 1472 -16
WIRE 1472 64 1424 64
WIRE 1504 64 1472 64
WIRE 1584 64 1568 64
WIRE 1680 64 1680 32
WIRE 1680 64 1584 64
WIRE 1712 64 1680 64
WIRE -32 80 -304 80
WIRE 1088 80 1088 64
WIRE 1168 80 1088 80
WIRE 1264 80 1232 80
WIRE 1360 80 1264 80
WIRE -304 112 -304 80
WIRE -32 112 -144 112
WIRE 1088 128 1088 80
WIRE 384 160 144 160
WIRE 560 160 560 0
WIRE 560 160 528 160
WIRE 592 160 560 160
WIRE 736 176 736 0
WIRE 736 176 656 176
WIRE 896 192 896 144
WIRE 896 192 848 192
WIRE 1040 192 896 192
WIRE -144 208 -144 192
WIRE -32 208 -144 208
WIRE -304 240 -304 192
WIRE -256 240 -304 240
WIRE -32 240 -256 240
WIRE 304 240 128 240
WIRE -256 256 -256 240
WIRE 0 304 0 256
WIRE 304 320 304 240
WIRE 304 320 240 320
WIRE -368 336 -368 304
WIRE -256 336 -368 336
WIRE -80 336 -256 336
WIRE 80 336 80 224
WIRE 80 336 -80 336
WIRE 128 336 128 240
WIRE 128 336 80 336
WIRE 176 336 128 336
WIRE 736 336 736 176
WIRE 400 352 240 352
WIRE 848 352 848 336
WIRE 1264 368 1264 160
WIRE 208 416 208 368
WIRE 400 416 400 352
WIRE 400 416 352 416
WIRE 496 416 400 416
WIRE 736 416 736 400
WIRE 1088 416 1088 224
WIRE 1088 416 736 416
WIRE 1088 544 1088 496
FLAG 0 304 0
FLAG -304 608 0
FLAG -304 528 5V
FLAG 0 64 5V
FLAG 352 496 0
FLAG 496 496 5V
FLAG 1584 64 OP
FLAG -80 336 mid
FLAG 624 144 5V
FLAG 624 208 0
FLAG 592 192 mid
FLAG 1088 -16 5v
FLAG 848 352 0
FLAG 1088 544 0
FLAG 976 32 0
FLAG 1264 368 0
FLAG 208 304 5v
FLAG 208 416 0
FLAG -368 304 CommonLead
FLAG 1392 32 5V
FLAG 1392 96 0
FLAG 1680 -48 V_bias
SYMBOL Opamps\\LT1789-1 0 160 R0
WINDOW 3 112 30 Left 2
SYMATTR InstName U1
SYMBOL res -160 96 R0
SYMATTR InstName R1
SYMATTR Value 3.3K
SYMBOL voltage -304 512 R0
WINDOW 123 0 0 Left 2
WINDOW 39 0 0 Left 2
SYMATTR InstName V1
SYMATTR Value 5
SYMBOL voltage -304 96 R0
WINDOW 3 -7 -41 Left 2
WINDOW 123 24 44 Left 2
WINDOW 39 0 0 Left 2
SYMATTR Value SINE(0 30u 8 0 0 0 100)
SYMATTR Value2 AC AC 1
SYMATTR InstName V2
SYMBOL res 336 400 R0
SYMATTR InstName R2
SYMATTR Value 100K
SYMBOL res 480 400 R0
SYMATTR InstName R3
SYMATTR Value 100K
SYMBOL cap 448 144 R90
WINDOW 0 0 32 VBottom 2
WINDOW 3 32 32 VTop 2
SYMATTR InstName C2
SYMATTR Value 10µ
SYMBOL res 544 144 R90
WINDOW 0 0 56 VBottom 2
WINDOW 3 32 56 VTop 2
SYMATTR InstName R6
SYMATTR Value 15K
SYMBOL res 688 -16 R90
WINDOW 0 0 56 VBottom 2
WINDOW 3 32 56 VTop 2
SYMATTR InstName R7
SYMATTR Value 1MEG
SYMBOL Opamps\\LTC2054 624 176 R0
SYMATTR InstName U2
SYMBOL res 1072 -32 R0
SYMATTR InstName R9
SYMATTR Value 2K
SYMBOL voltage 848 240 R0
WINDOW 123 0 0 Left 2
WINDOW 39 0 0 Left 2
WINDOW 0 41 62 Left 2
SYMATTR InstName V3
SYMATTR Value SINE(0 200mV 1K)
SYMBOL cap 832 192 R0
SYMATTR InstName C3
SYMATTR Value 100n
SYMBOL res 912 160 R180
WINDOW 0 36 76 Left 2
WINDOW 3 36 40 Left 2
SYMATTR InstName R10
SYMATTR Value 10K
SYMBOL cap 720 336 R0
SYMATTR InstName C5
SYMATTR Value 22µ
SYMBOL res 1072 400 R0
SYMATTR InstName R11
SYMATTR Value 10K
SYMBOL njf 1040 128 R0
SYMATTR InstName J1
SYMATTR Value 2N4393
SYMBOL cap 1232 64 R90
WINDOW 0 0 32 VBottom 2
WINDOW 3 32 32 VTop 2
SYMATTR InstName C6
SYMATTR Value 220n
SYMBOL res 1248 64 R0
SYMATTR InstName R8
SYMATTR Value 1000
SYMBOL cap 656 -144 R90
WINDOW 0 0 32 VBottom 2
WINDOW 3 32 32 VTop 2
SYMATTR InstName C4
SYMATTR Value 4.7n
SYMBOL Opamps\\LTC2054 208 336 M0
SYMATTR InstName U3
SYMBOL res -272 240 R0
SYMATTR InstName R4
SYMATTR Value 10K
SYMBOL Opamps\\LTC2054 1392 64 R0
SYMATTR InstName U4
SYMBOL res 1664 -64 R0
SYMATTR InstName R5
SYMATTR Value ?
SYMBOL cap 1776 48 R90
WINDOW 0 0 32 VBottom 2
WINDOW 3 32 32 VTop 2
SYMATTR InstName C1
SYMATTR Value ?
SYMBOL cap 1568 48 R90
WINDOW 0 0 32 VBottom 2
WINDOW 3 32 32 VTop 2
SYMATTR InstName C7
SYMATTR Value 10µ
TEXT -336 424 Left 2 !.tran 0 500m 50m 1m
TEXT -144 712 Left 4 ;DANGER THIS CIRCUIT DOES NOT COMPLY WITH ANY SAFETY REQUIREMENTS
TEXT 152 -216 Left 4 ;EXPERIMENTAL CIRCUIT ONLY
TEXT -176 624 Left 2 ;EXAMPLE WITHOUT ISOLATION YOU WILL BE RISKING SHOCK IF YOU USE A MAINS POWERED CHARGER TO THIS DEVICE OR YOUR PHONE
TEXT -312 -8 Left 2 ;NOTE V2 Represents EEG input
TEXT 880 -128 Left 2 ;NOTE V3 Represents 400mv p-p 1KHz Tone from your phone
TEXT -448 360 Left 2 ;R4 IS NOT FITTED, IT REPRESENTS THE VICTIM!
TEXT -240 552 Left 2 ;3 to 5V
TEXT 1680 136 Left 2 ;Phone
RECTANGLE Normal 1792 112 1648 -144 2
