Version 4
SHEET 1 1776 740
WIRE 592 -128 560 -128
WIRE 736 -128 656 -128
WIRE 992 -64 912 -64
WIRE 992 -32 992 -64
WIRE 560 0 560 -128
WIRE 592 0 560 0
WIRE 736 0 736 -128
WIRE 736 0 672 0
WIRE 912 0 912 -64
WIRE -32 80 -304 80
WIRE 1136 80 1136 64
WIRE 1232 80 1136 80
WIRE -304 112 -304 80
WIRE -32 112 -144 112
WIRE 1136 128 1136 80
WIRE 912 144 912 80
WIRE 912 144 784 144
WIRE 384 160 144 160
WIRE 560 160 560 0
WIRE 560 160 528 160
WIRE 592 160 560 160
WIRE 1584 160 1584 144
WIRE 736 176 736 0
WIRE 736 176 656 176
WIRE 912 192 912 144
WIRE 1088 192 912 192
WIRE -144 208 -144 192
WIRE -32 208 -144 208
WIRE 784 208 784 144
WIRE -304 240 -304 192
WIRE -256 240 -304 240
WIRE -32 240 -256 240
WIRE 304 240 128 240
WIRE -256 256 -256 240
WIRE 1232 272 1232 80
WIRE 1360 272 1232 272
WIRE 1520 272 1424 272
WIRE 1584 272 1584 160
WIRE 1584 272 1520 272
WIRE 0 304 0 256
WIRE 304 320 304 240
WIRE 304 320 240 320
WIRE -368 336 -368 304
WIRE -256 336 -368 336
WIRE -80 336 -256 336
WIRE 80 336 80 224
WIRE 80 336 -80 336
WIRE 128 336 128 240
WIRE 128 336 80 336
WIRE 176 336 128 336
WIRE 736 336 736 176
WIRE 400 352 240 352
WIRE 784 368 784 352
WIRE 208 416 208 368
WIRE 400 416 400 352
WIRE 400 416 352 416
WIRE 496 416 400 416
WIRE 736 416 736 400
WIRE 1136 416 1136 224
WIRE 1136 416 736 416
WIRE 1264 416 1136 416
WIRE 1264 432 1264 416
WIRE 1136 544 1136 496
WIRE 1264 544 1264 496
FLAG 0 304 0
FLAG -304 608 0
FLAG -304 528 5V
FLAG 0 64 5V
FLAG 352 496 0
FLAG 496 496 5V
FLAG 1584 160 OP
FLAG -80 336 mid
FLAG 624 144 5V
FLAG 624 208 0
FLAG 592 192 mid
FLAG 1136 -16 5v
FLAG 784 368 0
FLAG 1136 544 0
FLAG 1264 544 0
FLAG 992 -32 0
FLAG 1520 352 0
FLAG 208 304 5v
FLAG 208 416 0
FLAG -368 304 CommonLead
SYMBOL Opamps\\LT1789-1 0 160 R0
WINDOW 3 112 30 Left 2
SYMATTR InstName U1
SYMBOL res -160 96 R0
SYMATTR InstName R1
SYMATTR Value 2K
SYMBOL voltage -304 512 R0
WINDOW 123 0 0 Left 2
WINDOW 39 0 0 Left 2
SYMATTR InstName V1
SYMATTR Value 5
SYMBOL voltage -304 96 R0
WINDOW 3 -7 -41 Left 2
WINDOW 123 24 44 Left 2
WINDOW 39 0 0 Left 2
SYMATTR Value SINE(0 80u 10 0 0 0 100)
SYMATTR Value2 AC AC 1
SYMATTR InstName V2
SYMBOL res 336 400 R0
SYMATTR InstName R2
SYMATTR Value 100K
SYMBOL res 480 400 R0
SYMATTR InstName R3
SYMATTR Value 100K
SYMBOL cap 448 144 R90
WINDOW 0 0 32 VBottom 2
WINDOW 3 32 32 VTop 2
SYMATTR InstName C2
SYMATTR Value 10µ
SYMBOL res 544 144 R90
WINDOW 0 0 56 VBottom 2
WINDOW 3 32 56 VTop 2
SYMATTR InstName R6
SYMATTR Value 15K
SYMBOL res 688 -16 R90
WINDOW 0 0 56 VBottom 2
WINDOW 3 32 56 VTop 2
SYMATTR InstName R7
SYMATTR Value 1MEG
SYMBOL Opamps\\LTC2054 624 176 R0
SYMATTR InstName U2
SYMBOL res 1120 -32 R0
SYMATTR InstName R9
SYMATTR Value 2K
SYMBOL voltage 784 256 R0
WINDOW 123 0 0 Left 2
WINDOW 39 0 0 Left 2
SYMATTR InstName V3
SYMATTR Value SINE(0 200mV 1K)
SYMBOL cap 768 208 R0
SYMATTR InstName C3
SYMATTR Value 100n
SYMBOL res 928 96 R180
WINDOW 0 36 76 Left 2
WINDOW 3 36 40 Left 2
SYMATTR InstName R10
SYMATTR Value 10K
SYMBOL cap 720 336 R0
SYMATTR InstName C5
SYMATTR Value 10µ
SYMBOL res 1120 400 R0
SYMATTR InstName R11
SYMATTR Value 10K
SYMBOL cap 1248 432 R0
SYMATTR InstName C1
SYMATTR Value 1µ
SYMBOL njf 1088 128 R0
SYMATTR InstName J1
SYMATTR Value 2N4393
SYMBOL cap 1424 256 R90
WINDOW 0 0 32 VBottom 2
WINDOW 3 32 32 VTop 2
SYMATTR InstName C6
SYMATTR Value 220n
SYMBOL res 1504 256 R0
SYMATTR InstName R8
SYMATTR Value 1000
SYMBOL cap 656 -144 R90
WINDOW 0 0 32 VBottom 2
WINDOW 3 32 32 VTop 2
SYMATTR InstName C4
SYMATTR Value 47n
SYMBOL Opamps\\LTC2054 208 336 M0
SYMATTR InstName U3
SYMBOL res -272 240 R0
SYMATTR InstName R4
SYMATTR Value 10K
TEXT -336 424 Left 2 !.tran 0 500m 0 1m
TEXT -144 712 Left 4 ;DANGER THIS CIRCUIT DOES NOT COMPLY WITH ANY SAFETY REQUIREMENTS
TEXT 152 -216 Left 4 ;EXPERIMENTAL CIRCUIT ONLY
TEXT -176 624 Left 2 ;EXAMPLE WITHOUT ISOLATION YOU WILL BE RISKING SHOCK IF YOU USE A MAINS POWERED CHARGER TO THIS DEVICE OR YOUR PHONE
TEXT -312 -8 Left 2 ;NOTE V2 Represents EEG input
TEXT 880 -128 Left 2 ;NOTE V3 Represents 1vp-p 1KHz Tone from your phone
TEXT -448 360 Left 2 ;R4 IS NOT FITTED, IT REPRESENTS THE VICTIM!
